Version 4
SHEET 1 2088 884
WIRE 704 -464 512 -464
WIRE -192 -432 -336 -432
WIRE -64 -432 -192 -432
WIRE 160 -432 -64 -432
WIRE 304 -432 240 -432
WIRE 592 -416 592 -432
WIRE 512 -400 512 -464
WIRE 560 -400 512 -400
WIRE -192 -384 -192 -432
WIRE -64 -384 -64 -432
WIRE 704 -384 704 -464
WIRE 704 -384 624 -384
WIRE 752 -384 704 -384
WIRE 304 -368 304 -432
WIRE 416 -368 304 -368
WIRE 560 -368 416 -368
WIRE -336 -320 -336 -432
WIRE 592 -320 592 -352
WIRE 304 -304 304 -368
WIRE 416 -304 416 -368
WIRE -336 -192 -336 -240
WIRE -192 -192 -192 -320
WIRE -64 -192 -64 -320
WIRE 304 -192 304 -240
WIRE 416 -192 416 -224
WIRE 864 48 528 48
WIRE 1440 48 1296 48
WIRE 1600 48 1440 48
WIRE 1952 48 1824 48
WIRE 1440 64 1440 48
WIRE 528 128 -400 128
WIRE 864 128 800 128
WIRE 1440 128 1296 128
WIRE 1520 128 1440 128
WIRE 1520 144 1520 128
WIRE 1600 144 1520 144
WIRE 1952 144 1824 144
WIRE 800 192 800 128
WIRE 1056 192 1056 160
WIRE 1040 336 976 336
WIRE 1264 336 1120 336
WIRE 432 368 384 368
WIRE 640 368 496 368
WIRE 1488 368 1488 304
WIRE 1536 368 1488 368
WIRE -176 416 -272 416
WIRE 16 416 -96 416
WIRE 1264 432 1264 336
WIRE 1344 432 1264 432
WIRE 1456 432 1424 432
WIRE 1536 432 1456 432
WIRE 1952 432 1952 144
WIRE 1952 432 1840 432
WIRE 1264 464 1264 432
WIRE 1264 464 1184 464
WIRE 640 480 640 368
WIRE 640 480 592 480
WIRE 720 480 640 480
WIRE 976 480 976 336
WIRE 976 480 800 480
WIRE 1120 480 976 480
WIRE 16 496 16 416
WIRE 224 496 16 496
WIRE 384 496 384 368
WIRE 384 496 304 496
WIRE 528 496 384 496
WIRE 1264 496 1184 496
WIRE 672 512 592 512
WIRE 1152 544 1152 512
WIRE -128 560 -128 528
WIRE 16 576 16 496
WIRE 16 576 -96 576
WIRE 1264 576 1264 496
WIRE 1296 576 1264 576
WIRE 1360 576 1296 576
WIRE 1552 576 1440 576
WIRE -400 592 -400 128
WIRE -272 592 -272 416
WIRE -272 592 -400 592
WIRE -160 592 -272 592
WIRE -64 608 -96 608
WIRE 1296 608 1296 576
WIRE -128 640 -128 624
WIRE -64 656 -64 608
WIRE 96 656 -64 656
WIRE 672 656 672 512
WIRE 672 656 176 656
WIRE 672 688 672 656
WIRE 1296 688 672 688
WIRE -64 736 -64 656
WIRE -64 864 -64 816
FLAG 1952 48 omega
IOPIN 1952 48 Out
FLAG -336 -192 0
FLAG -192 -192 0
FLAG -64 -192 0
FLAG 304 -192 0
FLAG 592 -320 0
FLAG -192 -432 Vcc
FLAG 592 -432 Vcc
FLAG 752 -384 Vgnd
FLAG 416 -192 0
FLAG 1488 304 Vcc
FLAG 1152 448 Vcc
FLAG 1152 544 0
FLAG 976 480 Ve
FLAG 1552 576 Vref
IOPIN 1552 576 In
FLAG 1456 432 Vs
FLAG 384 496 VI
FLAG -64 864 0
FLAG -128 640 0
FLAG -128 528 Vcc
FLAG -272 592 Vo
FLAG 800 192 0
FLAG 1056 192 0
SYMBOL voltage -336 -336 R0
SYMATTR InstName V1
SYMATTR Value 8
SYMBOL DC_Motor_Driver 1056 80 R0
SYMATTR InstName X1
SYMBOL DC_motor_model3 1696 96 R0
SYMATTR InstName X2
SYMBOL Speed_Sensor 1680 384 R0
SYMATTR InstName X3
SYMBOL cap 1424 64 R0
SYMATTR InstName C1
SYMATTR Value 0.1µ
SYMBOL res 144 -416 R270
WINDOW 0 32 56 VTop 2
WINDOW 3 0 56 VBottom 2
SYMATTR InstName R1
SYMATTR Value 10k
SYMBOL polcap -208 -384 R0
SYMATTR InstName C2
SYMATTR Value 100µ
SYMBOL cap -80 -384 R0
SYMATTR InstName C3
SYMATTR Value 0.1µ
SYMBOL cap 496 352 R90
WINDOW 0 0 32 VBottom 2
WINDOW 3 32 32 VTop 2
SYMATTR InstName C4
SYMATTR Value {CI}
SYMBOL cap 320 -240 R180
WINDOW 0 24 56 Left 2
WINDOW 3 24 8 Left 2
SYMATTR InstName C5
SYMATTR Value 0.1µ
SYMBOL res 400 -320 R0
SYMATTR InstName R2
SYMATTR Value 10k
SYMBOL OpAmps\\TLV272 592 -384 R0
SYMATTR InstName U1
SYMBOL res 1328 448 R270
WINDOW 0 32 56 VTop 2
WINDOW 3 0 56 VBottom 2
SYMATTR InstName R3
SYMATTR Value {R1}
SYMBOL OpAmps\\TLV272 1152 480 M0
SYMATTR InstName U2
SYMBOL res 1024 352 R270
WINDOW 0 32 56 VTop 2
WINDOW 3 0 56 VBottom 2
SYMATTR InstName R4
SYMATTR Value {R2}
SYMBOL res 1344 592 R270
WINDOW 0 32 56 VTop 2
WINDOW 3 0 56 VBottom 2
SYMATTR InstName R5
SYMATTR Value {R1}
SYMBOL res 704 496 R270
WINDOW 0 32 56 VTop 2
WINDOW 3 0 56 VBottom 2
SYMATTR InstName R6
SYMATTR Value {RI}
SYMBOL OpAmps\\TLV272 560 496 M0
SYMATTR InstName U3
SYMBOL res 1280 592 R0
SYMATTR InstName R7
SYMATTR Value {R2}
SYMBOL res 208 512 R270
WINDOW 0 32 56 VTop 2
WINDOW 3 0 56 VBottom 2
SYMATTR InstName R8
SYMATTR Value {RA}
SYMBOL OpAmps\\TLV272 -128 592 M0
SYMATTR InstName U4
SYMBOL res 80 672 R270
WINDOW 0 32 56 VTop 2
WINDOW 3 0 56 VBottom 2
SYMATTR InstName R9
SYMATTR Value {RA}
SYMBOL res -80 720 R0
SYMATTR InstName R10
SYMATTR Value {RB}
SYMBOL res -192 432 R270
WINDOW 0 32 56 VTop 2
WINDOW 3 0 56 VBottom 2
SYMATTR InstName R11
SYMATTR Value {RB}
SYMBOL res 512 32 R0
SYMATTR InstName R12
SYMATTR Value 330
TEXT 1888 648 Left 2 !.param R1 47k\n.param R2 33k\n.param RA 22k\n.param RB 47k
