Version 4
SHEET 1 1376 684
SYMBOL DC_Motor_Driver 96 224 R0
SYMATTR InstName X1
