Version 4
SHEET 1 1604 684
WIRE -576 16 -720 16
WIRE 96 16 -576 16
WIRE 96 160 96 16
WIRE -240 192 -384 192
WIRE -96 192 -160 192
WIRE 448 192 336 192
WIRE 560 192 448 192
WIRE 752 192 560 192
WIRE 1072 192 976 192
WIRE -720 208 -720 16
WIRE 560 208 560 192
WIRE -720 224 -720 208
WIRE -576 224 -576 16
WIRE -384 240 -384 192
WIRE -96 272 -144 272
WIRE 560 272 336 272
WIRE 720 272 560 272
WIRE 720 288 720 272
WIRE 752 288 720 288
WIRE 96 336 96 304
WIRE -720 384 -720 288
WIRE -576 384 -576 288
WIRE -384 384 -384 320
WIRE 560 448 560 272
WIRE 752 448 560 448
WIRE 1072 448 976 448
WIRE 560 464 560 448
WIRE 448 544 448 192
WIRE 560 544 560 528
WIRE 560 544 448 544
WIRE 752 544 560 544
FLAG -384 384 0
FLAG -576 384 0
FLAG -720 384 0
FLAG 96 336 0
FLAG 1072 192 omega1
IOPIN 1072 192 Out
FLAG 1072 448 omega2
IOPIN 1072 448 Out
FLAG -144 272 0
SYMBOL DC_Motor_Driver 96 224 R0
SYMATTR InstName X1
SYMBOL voltage -720 192 R0
SYMATTR InstName V1
SYMATTR Value 8
SYMBOL polcap -592 224 R0
SYMATTR InstName C1
SYMATTR Value 100µ
SYMBOL voltage -384 224 R0
WINDOW 123 0 0 Left 0
WINDOW 39 0 0 Left 0
SYMATTR InstName V2
SYMATTR Value 8
SYMBOL res -256 208 R270
WINDOW 0 32 56 VTop 2
WINDOW 3 0 56 VBottom 2
SYMATTR InstName RB1
SYMATTR Value {RB1}
SYMBOL DC_motor_model3 848 240 R0
SYMATTR InstName X2
SYMBOL DC_motor_model3 848 496 R0
SYMATTR InstName X3
SYMBOL cap 544 208 R0
SYMATTR InstName C2
SYMATTR Value 100n
SYMBOL cap 544 464 R0
SYMATTR InstName C3
SYMATTR Value 100n
TEXT -512 536 Left 2 !.tran 2 startup
TEXT -520 600 Left 2 !.param RB1 330
TEXT 1408 264 Left 2 !.param RM 2.68\n.param k 0.66\n.param J 0.022\n.param B 0.001\n.param Tint 0.09
