Version 4
SHEET 1 1552 1032
WIRE 64 48 -96 48
WIRE 192 48 64 48
WIRE 320 48 192 48
WIRE 416 48 320 48
WIRE 544 48 416 48
WIRE 656 48 544 48
WIRE 1360 48 656 48
WIRE 1472 48 1360 48
WIRE 64 64 64 48
WIRE 192 64 192 48
WIRE 320 64 320 48
WIRE 544 64 544 48
WIRE 656 64 656 48
WIRE -96 176 -96 128
WIRE 64 176 64 128
WIRE 192 176 192 128
WIRE 320 176 320 128
WIRE 544 192 544 128
WIRE 656 192 656 144
WIRE 656 192 544 192
WIRE 1472 224 1472 48
WIRE -16 272 -224 272
WIRE 128 272 -16 272
WIRE 384 272 352 272
WIRE -224 304 -224 272
WIRE 1088 304 992 304
WIRE 1360 304 1360 48
WIRE 1360 304 1312 304
WIRE 992 320 992 304
WIRE 128 368 16 368
WIRE 432 368 352 368
WIRE 480 368 432 368
WIRE 560 368 544 368
WIRE 656 368 656 192
WIRE 656 368 560 368
WIRE 1088 368 656 368
WIRE 1472 368 1472 304
WIRE 1472 368 1312 368
WIRE 1088 432 896 432
WIRE 1472 432 1472 368
WIRE 1472 432 1312 432
WIRE -224 480 -224 384
WIRE 16 480 16 368
WIRE 1088 496 1040 496
WIRE 1360 496 1312 496
WIRE 1360 544 1360 496
WIRE 1472 576 1472 432
WIRE 1360 656 1360 608
WIRE 1472 672 1472 640
WIRE 896 752 896 432
WIRE 1424 752 896 752
WIRE 896 800 896 752
WIRE 1008 800 896 800
WIRE 1296 800 1088 800
WIRE 1424 800 1296 800
WIRE 1296 864 1296 800
WIRE 1296 992 1296 928
FLAG -96 176 0
FLAG 64 176 0
FLAG 192 176 0
FLAG 320 176 0
FLAG 16 480 0
FLAG -224 480 0
FLAG 384 272 w
FLAG 432 368 enc
FLAG 560 368 trig
FLAG 992 320 0
FLAG 416 48 Vcc
FLAG 1472 672 0
FLAG 1360 656 0
FLAG 1040 496 Vcc
FLAG 1296 992 0
FLAG 1424 752 PWM
IOPIN 1424 752 Out
FLAG 1424 800 speed
IOPIN 1424 800 Out
FLAG -16 272 Vdc
SYMBOL voltage -96 32 R0
WINDOW 123 0 0 Left 0
WINDOW 39 0 0 Left 0
SYMATTR InstName V2
SYMATTR Value 8
SYMBOL voltage -224 288 R0
WINDOW 123 0 0 Left 0
WINDOW 39 0 0 Left 0
SYMATTR InstName V1
SYMATTR Value 7
SYMBOL polcap 48 64 R0
SYMATTR InstName C7
SYMATTR Value 100µ
SYMBOL cap 176 64 R0
SYMATTR InstName C5
SYMATTR Value 0.1µ
SYMBOL cap 304 64 R0
SYMATTR InstName C6
SYMATTR Value 0.1µ
SYMBOL diode 560 128 R180
WINDOW 0 24 64 Left 2
WINDOW 3 24 0 Left 2
SYMATTR InstName D1
SYMATTR Value 1N4148
SYMBOL res 640 48 R0
WINDOW 0 37 34 Left 2
SYMATTR InstName R1
SYMATTR Value 4.7k
SYMBOL DC_motor_model3 224 320 R0
SYMATTR InstName X1
SYMBOL cap 544 352 R90
WINDOW 0 0 32 VBottom 2
WINDOW 3 32 32 VTop 2
SYMATTR InstName C1
SYMATTR Value 1n
SYMBOL LM555 1200 400 R0
SYMATTR InstName U1
SYMBOL res 1456 208 R0
SYMATTR InstName R2
SYMATTR Value 2.7k
SYMBOL cap 1456 576 R0
SYMATTR InstName C2
SYMATTR Value 100n
SYMBOL cap 1344 544 R0
SYMATTR InstName C4
SYMATTR Value 0.1µ
SYMBOL res 992 816 R270
WINDOW 0 32 56 VTop 2
WINDOW 3 0 56 VBottom 2
SYMATTR InstName R3
SYMATTR Value 4.7k
SYMBOL cap 1280 864 R0
SYMATTR InstName C3
SYMATTR Value 1µ
TEXT 208 600 Left 2 !.tran 0.9 startup
