Version 4
SHEET 1 1996 680
WIRE 768 -272 768 -304
WIRE 768 -272 624 -272
WIRE 928 -272 768 -272
WIRE -448 -240 -672 -240
WIRE 32 -240 -448 -240
WIRE 624 -240 624 -272
WIRE 928 -240 928 -272
WIRE -672 -176 -672 -240
WIRE -448 -160 -448 -240
WIRE -672 -64 -672 -96
WIRE -448 -64 -448 -96
WIRE -96 -64 -96 -112
WIRE 336 -64 -96 -64
WIRE 624 -48 624 -160
WIRE 768 -48 624 -48
WIRE 928 -48 928 -160
WIRE 928 -48 768 -48
WIRE -96 -16 -96 -64
WIRE -96 64 -96 48
WIRE -96 64 -224 64
WIRE -16 64 -96 64
WIRE 336 64 336 -64
WIRE 336 64 208 64
WIRE -224 80 -224 64
WIRE -16 128 -272 128
WIRE 432 128 208 128
WIRE 768 128 768 -48
WIRE 768 128 432 128
WIRE 1792 176 1568 176
WIRE -16 192 -96 192
WIRE 320 192 208 192
WIRE 1280 192 320 192
WIRE 1648 224 1648 80
WIRE 1568 240 1568 176
WIRE 1616 240 1568 240
WIRE -16 256 -96 256
WIRE 576 256 208 256
WIRE 1792 256 1792 176
WIRE 1792 256 1680 256
WIRE 1856 256 1792 256
WIRE 1280 272 1280 192
WIRE 1280 272 1168 272
WIRE 1616 272 1280 272
WIRE 576 288 576 256
WIRE 1648 352 1648 288
WIRE -272 368 -272 128
WIRE 320 368 320 192
WIRE 320 368 -272 368
WIRE 576 368 576 352
WIRE 1168 368 1168 336
WIRE 1168 368 576 368
WIRE 576 400 576 368
WIRE 1168 416 1168 368
WIRE -272 496 -272 368
WIRE -112 496 -272 496
WIRE 240 496 -32 496
WIRE 432 496 432 128
WIRE 432 496 320 496
FLAG -672 -64 0
FLAG 32 -240 Vcc
FLAG -224 80 0
FLAG -96 -112 Vcc
FLAG -96 256 Vcc
FLAG 768 -304 Vcc
FLAG -96 192 Probe1
IOPIN -96 192 Out
FLAG 576 400 0
FLAG 1168 416 0
FLAG 1856 256 Probe2
IOPIN 1856 256 Out
FLAG 1648 352 0
FLAG 1648 80 Vcc
SYMBOL Misc\\LMC555 96 160 R0
SYMATTR InstName U1
SYMBOL voltage -672 -192 R0
WINDOW 123 0 0 Left 0
WINDOW 39 0 0 Left 0
SYMATTR InstName V1
SYMATTR Value 8
SYMBOL polcap -464 -160 R0
SYMATTR InstName C1
SYMATTR Value 100µ
SYMBOL cap -112 -16 R0
SYMATTR InstName C2
SYMATTR Value 100n
SYMBOL res 608 -256 R0
SYMATTR InstName R2
SYMATTR Value 22k
SYMBOL res 912 -256 R0
SYMATTR InstName R1
SYMATTR Value 3.3K
SYMBOL res 224 512 R270
WINDOW 0 32 56 VTop 2
WINDOW 3 0 56 VBottom 2
SYMATTR InstName R4
SYMATTR Value 4.7k
SYMBOL res -128 512 R270
WINDOW 0 32 56 VTop 2
WINDOW 3 0 56 VBottom 2
SYMATTR InstName R3
SYMATTR Value 1k
SYMBOL cap 560 288 R0
SYMATTR InstName C3
SYMATTR Value 100n
SYMBOL cap 1152 272 R0
SYMATTR InstName C4
SYMATTR Value 100n
SYMBOL OpAmps\\TLV272 1648 256 R0
SYMATTR InstName U2
TEXT 1192 -128 Left 2 !.tran 10m startup
