Version 4
SHEET 1 1108 680
WIRE -160 -96 -272 -96
WIRE -48 -96 -160 -96
WIRE 432 -96 -48 -96
WIRE 816 -96 432 -96
WIRE -160 -64 -160 -96
WIRE -48 -64 -48 -96
WIRE -272 -16 -272 -96
WIRE -160 32 -160 0
WIRE -48 32 -48 0
WIRE -272 96 -272 64
WIRE 432 112 432 -96
WIRE 816 112 816 -96
WIRE 368 160 -48 160
WIRE 608 160 512 160
WIRE 752 160 608 160
WIRE 1024 160 896 160
WIRE -48 256 -48 160
WIRE 1024 272 1024 160
WIRE -48 384 -48 336
WIRE 1024 432 1024 352
FLAG -48 384 0
FLAG -272 96 0
FLAG -160 32 0
FLAG -48 32 0
FLAG -48 160 Vin
FLAG 1024 432 0
FLAG 608 160 Vout1
FLAG 1024 160 Vout2
SYMBOL voltage -48 240 R0
WINDOW 3 24 44 Left 2
WINDOW 123 24 72 Left 2
WINDOW 39 0 0 Left 0
SYMATTR Value 4
SYMATTR Value2 AC 1
SYMATTR InstName V2
SYMBOL voltage -272 -32 R0
WINDOW 123 0 0 Left 0
WINDOW 39 0 0 Left 0
SYMATTR InstName V1
SYMATTR Value 8
SYMBOL cap -64 -64 R0
SYMATTR InstName C2
SYMATTR Value 0.1µ
SYMBOL polcap -176 -64 R0
SYMATTR InstName C1
SYMATTR Value 100µ
SYMBOL res 1008 256 R0
SYMATTR InstName R1
SYMATTR Value 10k
SYMBOL opamp_filter1 432 144 R0
WINDOW 0 8 -40 Bottom 2
SYMATTR InstName X1
SYMBOL opamp_filter1 816 144 R0
WINDOW 0 8 -40 Bottom 2
SYMATTR InstName X2
TEXT 16 440 Left 2 !.ac dec 100 10 10k
TEXT 384 280 Left 2 !.param R2 8k2
