Version 4
SHEET 1 880 680
WIRE -752 -144 -864 -144
WIRE -656 -144 -752 -144
WIRE 16 -144 -656 -144
WIRE -864 -128 -864 -144
WIRE -656 -128 -656 -144
WIRE 608 0 -256 0
WIRE -864 16 -864 -48
WIRE -656 16 -656 -64
WIRE -976 80 -1072 80
WIRE -928 80 -928 48
WIRE -1072 128 -1072 80
WIRE -1072 128 -1200 128
WIRE -992 128 -1072 128
WIRE -736 128 -912 128
WIRE -688 128 -736 128
WIRE -576 128 -688 128
WIRE -256 128 -256 0
WIRE -256 128 -352 128
WIRE 16 144 16 -144
WIRE 160 144 16 144
WIRE 608 144 464 144
WIRE -736 160 -736 128
WIRE -1200 192 -1200 128
WIRE 160 208 96 208
WIRE 608 208 464 208
WIRE -576 224 -640 224
WIRE -144 224 -352 224
WIRE 96 224 96 208
WIRE 96 224 -144 224
WIRE -736 272 -736 224
WIRE -640 272 -640 224
WIRE -640 272 -736 272
WIRE -1200 320 -1200 272
WIRE -736 336 -736 272
FLAG -864 16 0
FLAG -1200 320 0
FLAG -736 336 0
FLAG -688 128 Vdc
FLAG -752 -144 Vcc
FLAG -656 16 0
FLAG -144 224 enc
FLAG 608 0 omega
IOPIN 608 0 Out
FLAG 608 144 PWM
IOPIN 608 144 Out
FLAG 608 208 speed
IOPIN 608 208 Out
FLAG -928 48 0
SYMBOL Speed_Sensor 304 160 R0
SYMATTR InstName X1
SYMBOL DC_motor_model3 -480 176 R0
SYMATTR InstName X2
SYMBOL voltage -1200 176 R0
WINDOW 123 0 0 Left 0
WINDOW 39 0 0 Left 0
SYMATTR InstName V1
SYMATTR Value PWL(0 0 10m 7 700m 7 710m 0)
SYMBOL voltage -864 -144 R0
SYMATTR InstName V2
SYMATTR Value 8
SYMBOL cap -752 160 R0
SYMATTR InstName C1
SYMATTR Value 100n
SYMBOL cap -672 -128 R0
SYMATTR InstName C2
SYMATTR Value 100n
SYMBOL sw -896 128 R90
SYMATTR InstName S1
SYMATTR Value mySW
TEXT -568 440 Left 2 !.tran 4
TEXT -384 400 Left 2 !.model mySW SW(Ron=0.1  Roff=1Meg   Vt=0.5)
